# generated using pymatgen
data_C
_symmetry_space_group_name_H-M   P-1
_cell_length_a   13.50866736
_cell_length_b   15.83664601
_cell_length_c   33.73869519
_cell_angle_alpha   90.73229154
_cell_angle_beta   93.07058384
_cell_angle_gamma   97.59720462
_symmetry_Int_Tables_number   2
_chemical_formula_structural   C
_chemical_formula_sum   C120
_cell_volume   7142.718007663117
_cell_formula_units_Z   120
loop_
 _symmetry_equiv_pos_site_id
 _symmetry_equiv_pos_as_xyz
  1  'x, y, z'
  2  '-x, -y, -z'
loop_
 _atom_site_type_symbol
 _atom_site_label
 _atom_site_symmetry_multiplicity
 _atom_site_fract_x
 _atom_site_fract_y
 _atom_site_fract_z
 _atom_site_occupancy
  C  C1  2  0.134589  0.064603  0.780360  1
  C  C2  2  0.142256  0.042546  0.739209  1
  C  C3  2  0.143076  0.990930  0.803392  1
  C  C4  2  0.155020  0.955325  0.736797  1
  C  C5  2  0.155563  0.922366  0.776371  1
  C  C6  2  0.177312  0.143755  0.795197  1
  C  C7  2  0.192333  0.100631  0.714458  1
  C  C8  2  0.194173  0.997877  0.840216  1
  C  C9  2  0.217614  0.927963  0.709568  1
  C  C10  2  0.218657  0.863447  0.787220  1
  C  C11  2  0.229484  0.204182  0.769486  1
  C  C12  2  0.230275  0.150897  0.833533  1
  C  C13  2  0.236803  0.183060  0.729903  1
  C  C14  2  0.238536  0.078691  0.855515  1
  C  C15  2  0.257404  0.073627  0.686440  1
  C  C16  2  0.259689  0.936520  0.851490  1
  C  C17  2  0.269831  0.988384  0.683858  1
  C  C18  2  0.271703  0.870683  0.825539  1
  C  C19  2  0.283301  0.866598  0.720859  1
  C  C20  2  0.283849  0.835006  0.758931  1
  C  C21  2  0.314691  0.248669  0.791932  1
  C  C22  2  0.315407  0.215823  0.831527  1
  C  C23  2  0.329601  0.205508  0.711110  1
  C  C24  2  0.331718  0.068370  0.876284  1
  C  C25  2  0.342567  0.137107  0.684153  1
  C  C26  2  0.344353  0.980864  0.873743  1
  C  C27  2  0.353387  0.969581  0.226803  1
  C  C28  2  0.361054  0.947525  0.185652  1
  C  C29  2  0.362013  0.894396  0.249692  1
  C  C30  2  0.367770  0.964382  0.679199  1
  C  C31  2  0.369661  0.846677  0.820897  1
  C  C32  2  0.373818  0.860304  0.183241  1
  C  C33  2  0.374361  0.827345  0.222815  1
  C  C34  2  0.376024  0.889186  0.702032  1
  C  C35  2  0.377281  0.824663  0.779682  1
  C  C36  2  0.396110  0.048734  0.241640  1
  C  C37  2  0.403922  0.270358  0.773874  1
  C  C38  2  0.405178  0.205835  0.851524  1
  C  C39  2  0.411131  0.005609  0.160902  1
  C  C40  2  0.411541  0.248345  0.732659  1
  C  C41  2  0.413021  0.901317  0.286534  1
  C  C42  2  0.413432  0.130640  0.874357  1
  C  C43  2  0.436412  0.832942  0.156012  1
  C  C44  2  0.436849  0.114158  0.679813  1
  C  C45  2  0.437455  0.768426  0.233663  1
  C  C46  2  0.438635  0.957915  0.869403  1
  C  C47  2  0.448282  0.109160  0.215930  1
  C  C48  2  0.449073  0.055876  0.279976  1
  C  C49  2  0.449484  0.026651  0.677273  1
  C  C50  2  0.451602  0.889514  0.842446  1
  C  C51  2  0.455601  0.088038  0.176347  1
  C  C52  2  0.457334  0.983670  0.301959  1
  C  C53  2  0.465795  0.879198  0.722030  1
  C  C54  2  0.466511  0.846352  0.761624  1
  C  C55  2  0.476505  0.977218  0.132665  1
  C  C56  2  0.478487  0.841498  0.297934  1
  C  C57  2  0.489191  0.892001  0.130348  1
  C  C58  2  0.490501  0.775661  0.271983  1
  C  C59  2  0.497353  0.260015  0.794626  1
  C  C60  2  0.497901  0.228424  0.832697  1
