# generated using pymatgen
data_Li
_symmetry_space_group_name_H-M   Cmc2_1
_cell_length_a   11.16517840
_cell_length_b   4.65765001
_cell_length_c   6.65821310
_cell_angle_alpha   90.00000000
_cell_angle_beta   90.00000000
_cell_angle_gamma   90.00000000
_symmetry_Int_Tables_number   36
_chemical_formula_structural   Li
_chemical_formula_sum   Li32
_cell_volume   346.25034020
_cell_formula_units_Z   32
loop_
 _symmetry_equiv_pos_site_id
 _symmetry_equiv_pos_as_xyz
  1  'x, y, z'
  2  '-x, -y, z+1/2'
  3  '-x, y, z'
  4  'x, -y, z+1/2'
  5  'x+1/2, y+1/2, z'
  6  '-x+1/2, -y+1/2, z+1/2'
  7  '-x+1/2, y+1/2, z'
  8  'x+1/2, -y+1/2, z+1/2'
loop_
 _atom_site_type_symbol
 _atom_site_label
 _atom_site_symmetry_multiplicity
 _atom_site_fract_x
 _atom_site_fract_y
 _atom_site_fract_z
 _atom_site_occupancy
  Li  Li1  8  0.059981  0.057179  0.534037  1
  Li  Li2  8  0.153383  0.331288  0.091912  1
  Li  Li3  8  0.224921  0.193930  0.760058  1
  Li  Li4  4  0.000000  0.356746  0.058574  1
  Li  Li5  4  0.000000  0.375972  0.322887  1
